version 2
run Net1-0-20230829-18:31:09-1522
attr configname Net1
attr datetime 20230829-18:31:09
attr experiment Net1
attr inifile omnetpp.ini
attr iterationvars ""
attr iterationvarsf ""
attr measurement ""
attr network Net
attr processid 1522
attr repetition 0
attr replication #0
attr resultdir results
attr runnumber 0
attr seedset 0
param **.source.avgInterArrivalTime 0.8s
param **.sys.L 0.5s

vector 0 Net.sys processTimeValues:vector ETV
attr interpolationmode sample-hold
attr title "Produced Process Time Values, vector"
vector 1 Net.sys queueingTime:vector ETV
attr interpolationmode none
attr title "Queueing time, vector"
attr unit s
vector 2 Net.sys serverUtilization:vector ETV
attr interpolationmode sample-hold
attr title "Utilization Factor of the server, vector"
vector 3 Net.sys responseTime:vector ETV
attr interpolationmode none
attr title "Response Time, vector"
attr unit s
vector 4 Net.sys queueLength:vector ETV
attr interpolationmode sample-hold
attr title "Queue length, vector"
0	2	0.636699603653	0.3575946824858
0	6	1.35554791444	0.30138168518897
0	10	2.8432312841	0.27244158869144
0	14	4.404467552808	0.21182739839423
0	18	5.90763879617	0.32294705754612
0	22	6.689243937285	0.2187936049886
0	26	7.077346468262	0.44588650087826
0	28	7.359873779572	0.48183138202876
0	30	7.406581514846	0.19172076066025
0	34	7.661266427519	0.39586251671426
0	40	8.18082350612	0.26444746076595
0	46	9.51859246638	0.2840222818777
0	50	10.041698520157	0.46279831661377
0	52	10.44079612737	0.035518029355444
0	58	11.88749153879	0.04356464848388
0	62	12.216753935784	0.010109199560247
0	66	13.05244394243	0.41630992142018
0	68	13.419842452234	0.38907837844454
0	74	15.939978395175	0.43500607262831
0	76	16.060963078107	0.48930917144753
0	82	17.693676850836	0.3995792819187
0	86	18.207044188978	0.23073968139943
0	90	19.498245848892	0.3902645878261
0	94	20.086217385844	0.059137211879715
0	98	20.994968539212	0.31996050849557
0	102	22.015150700991	0.07167664275039
0	106	22.713007657025	0.4723344593076
0	110	23.329675383799	0.26092416408937
0	114	24.466767127874	0.20733097055927
0	116	24.55632405638	0.13227780570742
0	122	25.069679818005	0.38711684325244
0	124	25.234642443629	0.22807516797911
0	130	26.302874591328	0.28421697416343
0	132	26.498113383917	0.0093948990106583
0	138	26.614335805751	0.30881775042508
0	142	26.927752454292	0.30604786123149
0	144	27.057461645849	0.3084669993259
0	148	27.258615191509	0.4718740376411
0	152	27.649460830955	0.34091014892329
0	158	29.512591530326	0.17975395102985
0	162	29.990788391781	0.21851597633213
0	166	30.750384058578	0.3488155977102
0	170	32.611464907933	0.030112733249553
0	174	32.695113888553	0.33338335563894
0	178	35.495284836117	0.33531893684994
0	182	36.342352141307	0.10519128083251
0	186	36.492292994121	0.064463149174117
0	190	36.847016217017	0.15771417482756
0	194	37.95825036885	0.18185538670514
0	198	38.707099616667	0.28509838797618
0	202	39.02158966251	0.21930075669661
0	204	39.05293618764	0.49418691592291
0	210	39.857632991773	0.051022403407842
0	214	42.411990305416	0.10443837929051
0	218	43.258251436098	0.080654755583964
0	222	44.064666832434	0.3265541610308
0	226	48.352747112629	0.12664580065757
0	230	49.05027979553	0.233155386406
0	234	49.478331537197	0.12221279402729
0	238	49.993356338479	0.079484793241136
0	242	50.774847597736	0.055187569581904
0	246	51.104848581674	0.32816479599569
0	250	52.003383222901	0.069091474753805
0	254	52.3086278976	0.098291178350337
0	258	53.513936164218	0.18436258286238
0	262	55.9036880777	0.41049661545549
0	266	56.772703582403	0.048550635576248
0	268	56.783635245148	0.4189724533353
0	274	57.563716792473	0.048049200559035
0	278	58.459568285076	0.48822973261122
0	282	61.318438982952	0.23432559915818
0	286	63.002696023586	0.48838054540101
0	290	63.572762898253	0.30242275900673
0	292	63.618624439392	0.36963179067243
0	296	64.098581948705	0.019593894481659
0	298	64.114734051222	0.14140347973444
0	306	64.581036762316	0.060098282294348
0	310	67.694292860592	0.14807009964716
0	314	68.050628430128	0.05936385714449
0	318	68.575145457619	0.15899158664979
0	322	69.508644278858	0.20713149418589
0	326	71.208034036459	0.03207375050988
0	330	73.211163462927	0.34623605967499
0	332	73.406679821392	0.28330072422978
0	338	74.072954634245	0.13269474555273
0	342	75.675547052251	0.2616240264615
0	346	76.244545402025	0.046970252995379
0	350	78.233011287606	0.28797324758489
0	354	80.265254893973	0.46464809891768
0	356	80.334671279845	0.15928447747137
0	358	80.594943612268	0.33370518812444
0	360	80.602464212799	0.065898931003176
0	370	82.0803263336	0.35816359892488
0	374	82.913750856944	0.1447030454874
0	378	84.386776834134	0.091595681733452
0	382	84.632791013144	0.29325646650977
0	386	85.038551111749	0.010053775273263
0	390	85.68238903159	0.41447001416236
0	392	85.826590833178	0.0023477410431951
0	398	86.195975550014	0.33890826965217
0	400	86.322648754998	0.1350039843237
0	406	86.997115180717	0.36759701021947
0	410	87.970322103466	0.48109427245799
0	412	88.242599494054	0.12437656987458
0	418	88.696922816838	0.28807866794523
0	422	89.825742344274	0.29602096322924
0	426	90.229217389544	0.2861259507481
0	430	92.040204250233	0.11154081532732
0	434	92.855131234248	0.47637450462207
0	438	94.632336753027	0.22356268926524
0	442	95.544023123853	0.42320433305576
0	446	96.021126639317	0.34973963873927
0	450	99.095531905912	0.14871847582981
0	452	99.194353223802	0.40689890983049
0	458	100.359808070653	0.19825286942068
1	2	0.636699603653	0
1	6	1.35554791444	0
1	10	2.8432312841	0
1	14	4.404467552808	0
1	18	5.90763879617	0
1	22	6.689243937285	0
1	26	7.077346468262	0
1	31	7.52323296914	0.116651454294
1	35	7.7149537298	0.053687302281
1	37	8.110816246514	0.750942466942
1	41	8.592647628543	0.411824122423
1	46	9.51859246638	0
1	50	10.041698520157	0
1	53	10.504496836771	0.063700709401
1	58	11.88749153879	0
1	62	12.216753935784	0
1	66	13.05244394243	0
1	69	13.46875386385	0.048911411616
1	74	15.939978395175	0
1	77	16.374984467803	0.314021389696
1	82	17.693676850836	0
1	86	18.207044188978	0
1	90	19.498245848892	0
1	94	20.086217385844	0
1	98	20.994968539212	0
1	102	22.015150700991	0
1	106	22.713007657025	0
1	110	23.329675383799	0
1	114	24.466767127874	0
1	117	24.674098098433	0.117774042053
1	122	25.069679818005	0
1	125	25.456796661257	0.222154217628
1	130	26.302874591328	0
1	133	26.587091565491	0.088978181574
1	138	26.614335805751	0
1	142	26.927752454292	0
1	145	27.233800315523	0.176338669674
1	149	27.542267314849	0.28365212334
1	153	28.01414135249	0.364680521535
1	158	29.512591530326	0
1	162	29.990788391781	0
1	166	30.750384058578	0
1	170	32.611464907933	0
1	174	32.695113888553	0
1	178	35.495284836117	0
1	182	36.342352141307	0
1	186	36.492292994121	0
1	190	36.847016217017	0
1	194	37.95825036885	0
1	198	38.707099616667	0
1	202	39.02158966251	0
1	205	39.240890419207	0.187954231567
1	210	39.857632991773	0
1	214	42.411990305416	0
1	218	43.258251436098	0
1	222	44.064666832434	0
1	226	48.352747112629	0
1	230	49.05027979553	0
1	234	49.478331537197	0
1	238	49.993356338479	0
1	242	50.774847597736	0
1	246	51.104848581674	0
1	250	52.003383222901	0
1	254	52.3086278976	0
1	258	53.513936164218	0
1	262	55.9036880777	0
1	266	56.772703582403	0
1	269	56.821254217979	0.037618972831
1	274	57.563716792473	0
1	278	58.459568285076	0
1	282	61.318438982952	0
1	286	63.002696023586	0
1	290	63.572762898253	0
1	293	63.87518565726	0.256561217868
1	299	64.244817447932	0.146235499227
1	301	64.264411342414	0.149677291192
1	306	64.581036762316	0
1	310	67.694292860592	0
1	314	68.050628430128	0
1	318	68.575145457619	0
1	322	69.508644278858	0
1	326	71.208034036459	0
1	330	73.211163462927	0
1	333	73.557399522602	0.15071970121
1	338	74.072954634245	0
1	342	75.675547052251	0
1	346	76.244545402025	0
1	350	78.233011287606	0
1	354	80.265254893973	0
1	361	80.729902992891	0.127438780092
1	363	80.795801923894	0.461130644049
1	365	80.955086401365	0.360142789097
1	370	82.0803263336	0
1	374	82.913750856944	0
1	378	84.386776834134	0
1	382	84.632791013144	0
1	386	85.038551111749	0
1	390	85.68238903159	0
1	393	86.096859045752	0.270268212574
1	398	86.195975550014	0
1	401	86.534883819666	0.212235064668
1	406	86.997115180717	0
1	410	87.970322103466	0
1	413	88.451416375924	0.20881688187
1	418	88.696922816838	0
1	422	89.825742344274	0
1	426	90.229217389544	0
1	430	92.040204250233	0
1	434	92.855131234248	0
1	438	94.632336753027	0
1	442	95.544023123853	0
1	446	96.021126639317	0
1	450	99.095531905912	0
1	453	99.244250381742	0.04989715794
1	458	100.359808070653	0
2	2	0.636699603653	0
2	3	0.994294286139	0.35964672378295
2	6	1.35554791444	0.26380084294824
2	7	1.656929599629	0.39770933407343
2	10	2.8432312841	0.2317702296539
2	11	3.115672872791	0.29894600440888
2	14	4.404467552808	0.21147118129459
2	15	4.616294951202	0.24765431300318
2	18	5.90763879617	0.19351984679584
2	19	6.230585853716	0.23532175733227
2	22	6.689243937285	0.21918656668112
2	23	6.908037542274	0.24391674292209
2	26	7.077346468262	0.23808160655286
2	43	8.857095089309	0.39118182693151
2	46	9.51859246638	0.36399653106061
2	47	9.802614748258	0.38242418135286
2	50	10.041698520157	0.37331900700813
2	55	10.540014866126	0.40294755938518
2	58	11.88749153879	0.35727245334564
2	59	11.931056187274	0.35961928661852
2	62	12.216753935784	0.35120932591638
2	63	12.226863135344	0.35174574759088
2	66	13.05244394243	0.32949745911204
2	71	13.857832242295	0.36846566799342
2	74	15.939978395175	0.32033515275301
2	79	16.864293639251	0.35758691037841
2	82	17.693676850836	0.34082518342642
2	83	18.093256132755	0.35538268473702
2	86	18.207044188978	0.35316165948482
2	87	18.437783870377	0.36125651913045
2	90	19.498245848892	0.34160865921539
2	91	19.888510436718	0.35452801916731
2	94	20.086217385844	0.35103842967901
2	95	20.145354597724	0.35294347323136
2	98	20.994968539212	0.33866073235206
2	99	21.314929047708	0.34858816152114
2	102	22.015150700991	0.33750084342414
2	103	22.086827343741	0.33965079980443
2	106	22.713007657025	0.33028688607533
2	107	23.185342116333	0.34393035874742
2	110	23.329675383799	0.34180257121321
2	111	23.590599547888	0.34908257329892
2	114	24.466767127874	0.33658174587599
2	119	24.80637590414	0.34566419557788
2	122	25.069679818005	0.34203372497596
2	127	25.684871829236	0.35779302479826
2	130	26.302874591328	0.34938645019309
2	135	26.596486464502	0.35656889751846
2	138	26.614335805751	0.35632975873336
2	139	26.923153556176	0.36371287585257
2	142	26.927752454292	0.36365075858294
2	155	28.355051501413	0.39568246432206
2	158	29.512591530326	0.38016304473056
2	159	29.692345481356	0.38391546441643
2	162	29.990788391781	0.38009506306316
2	163	30.209304368113	0.38457908331325
2	166	30.750384058578	0.37781208063251
2	167	31.099199656288	0.38479067986917
2	170	32.611464907933	0.36694709093608
2	171	32.641577641183	0.36753109927027
2	174	32.695113888553	0.36692928959578
2	175	33.028497244192	0.37331938467734
2	178	35.495284836117	0.3473751041849
2	179	35.830603772967	0.35348266205954
2	182	36.342352141307	0.34850515881919
2	183	36.44754342214	0.35038543854082
2	186	36.492292994121	0.34995576977745
2	187	36.556756143295	0.35110203937584
2	190	36.847016217017	0.34833625494344
2	191	37.004730391845	0.35111364606962
2	194	37.95825036885	0.3422935905488
2	195	38.140105755555	0.34542959269299
2	198	38.707099616667	0.34036963055574
2	199	38.992198004643	0.34519263527494
2	202	39.02158966251	0.344932630905
2	207	39.73507733513	0.35669509681498
2	210	39.857632991773	0.35559831814224
2	211	39.908655395181	0.35642217257288
2	214	42.411990305416	0.33538462962905
2	215	42.516428684707	0.33701720682993
2	218	43.258251436098	0.33123780005003
2	219	43.338906191682	0.33248238272459
2	222	44.064666832434	0.32700628033983
2	223	44.391220993465	0.33195700921334
2	226	48.352747112629	0.30475987066452
2	227	48.479392913287	0.30657609066106
2	230	49.05027979553	0.30300790982096
2	231	49.283435181936	0.30630531511562
2	234	49.478331537197	0.30509877100513
2	235	49.600544331224	0.30681096634317
2	238	49.993356338479	0.3044002653948
2	239	50.07284113172	0.30550444881707
2	242	50.774847597736	0.30128058387975
2	243	50.830035167318	0.30203920280001
2	246	51.104848581674	0.30041500417904
2	247	51.43301337767	0.30487865801456
2	250	52.003383222901	0.30153476801724
2	251	52.072474697655	0.30246151469525
2	254	52.3086278976	0.30109601807593
2	255	52.40691907595	0.30240683918788
2	258	53.513936164218	0.29615109418787
2	259	53.69829874708	0.29856762143823
2	262	55.9036880777	0.28678918839686
2	263	56.314184693155	0.29198806725597
2	266	56.772703582403	0.2896298557243
2	271	57.240226671314	0.29543197188343
2	274	57.563716792473	0.29377173641387
2	275	57.611765993032	0.29436074289358
2	278	58.459568285076	0.2900918144729
2	279	58.947798017687	0.2959715639335
2	282	61.318438982952	0.28452896484501
2	283	61.55276458211	0.28725269594191
2	286	63.002696023586	0.28064191986752
2	287	63.491076568987	0.28617530361999
2	290	63.572762898253	0.28580758938179
2	303	64.405814822148	0.29504525469726
2	306	64.581036762316	0.29424473484565
2	307	64.64113504461	0.29490089100885
2	310	67.694292860592	0.28160022824577
2	311	67.842362960239	0.28316817961345
2	314	68.050628430128	0.28230155787394
2	315	68.109992287272	0.28292709527837
2	318	68.575145457619	0.28100796795509
2	319	68.734137044269	0.28267109618917
2	322	69.508644278858	0.27952140435905
2	323	69.715775773044	0.28166200749212
2	326	71.208034036459	0.27575940866521
2	327	71.240107786969	0.27608547656091
2	330	73.211163462927	0.26865245924654
2	335	73.840700246832	0.27488764089005
2	338	74.072954634245	0.27402573574589
2	339	74.205649379798	0.27532392491448
2	342	75.675547052251	0.26997612087254
2	343	75.937171078713	0.27249124994513
2	346	76.244545402025	0.2713927213472
2	347	76.29151565502	0.27184130161093
2	350	78.233011287606	0.26509506123046
2	351	78.520984535191	0.26779030203948
2	354	80.265254893973	0.26197086389238
2	367	81.288791589489	0.27126365676573
2	370	82.0803263336	0.26864774843866
2	371	82.438489932525	0.27182519327924
2	374	82.913750856944	0.27026709355147
2	375	83.058453902431	0.27153842198336
2	378	84.386776834134	0.26726416568053
2	379	84.478372515867	0.26805863456382
2	382	84.632791013144	0.26756954267596
2	383	84.926047479654	0.2700986839024
2	386	85.038551111749	0.26974135087442
2	387	85.048604887022	0.26982767629222
2	390	85.68238903159	0.26783178769793
2	395	86.099206786795	0.27137631176584
2	398	86.195975550014	0.27107164846934
2	403	86.66988780399	0.2750574396918
2	406	86.997115180717	0.27402284993267
2	407	87.364712190936	0.27707748175323
2	410	87.970322103466	0.27517001039838
2	415	88.575792945799	0.28012467588606
2	418	88.696922816838	0.27974212072195
2	419	88.985001484783	0.28207387244389
2	422	89.825742344274	0.27943374920339
2	423	90.121763307503	0.28180057723474
2	426	90.229217389544	0.28146498059297
2	427	90.515343340292	0.28373632496384
2	430	92.040204250233	0.27903557017747
2	431	92.15174506556	0.27990822820763
2	434	92.855131234248	0.27778789760655
2	435	93.33150573887	0.28147414942244
2	438	94.632336753027	0.27760496140685
2	439	94.855899442292	0.27930755005436
2	442	95.544023123853	0.27729593139578
2	443	95.967227456909	0.28048297244569
2	446	96.021126639317	0.28032552998043
2	447	96.370866278056	0.28293730155493
2	450	99.095531905912	0.27515784343449
2	455	99.651149291572	0.27919929109375
2	458	100.359808070653	0.27722781433875
2	459	100.558060940074	0.27865277876632
3	3	0.994294286139	0.357594682486
3	7	1.656929599629	0.301381685189
3	11	3.115672872791	0.272441588691
3	15	4.616294951202	0.211827398394
3	19	6.230585853716	0.322947057546
3	23	6.908037542274	0.218793604989
3	31	7.52323296914	0.445886500878
3	35	7.7149537298	0.308372214954
3	37	8.110816246514	0.449549818995
3	41	8.592647628543	1.232773848971
3	43	8.857095089309	0.676271583189
3	47	9.802614748258	0.284022281878
3	53	10.504496836771	0.462798316614
3	55	10.540014866126	0.099218738756
3	59	11.931056187274	0.043564648484
3	63	12.226863135344	0.01010919956
3	69	13.46875386385	0.41630992142
3	71	13.857832242295	0.437989790061
3	77	16.374984467803	0.435006072628
3	79	16.864293639251	0.803330561144
3	83	18.093256132755	0.399579281919
3	87	18.437783870377	0.230739681399
3	91	19.888510436718	0.390264587826
3	95	20.145354597724	0.05913721188
3	99	21.314929047708	0.319960508496
3	103	22.086827343741	0.07167664275
3	107	23.185342116333	0.472334459308
3	111	23.590599547888	0.260924164089
3	117	24.674098098433	0.207330970559
3	119	24.80637590414	0.25005184776
3	125	25.456796661257	0.387116843252
3	127	25.684871829236	0.450229385607
3	133	26.587091565491	0.284216974163
3	135	26.596486464502	0.098373080585
3	139	26.923153556176	0.308817750425
3	145	27.233800315523	0.306047861231
3	149	27.542267314849	0.484805669
3	153	28.01414135249	0.755526160981
3	155	28.355051501413	0.705590670458
3	159	29.692345481356	0.17975395103
3	163	30.209304368113	0.218515976332
3	167	31.099199656288	0.34881559771
3	171	32.641577641183	0.03011273325
3	175	33.028497244192	0.333383355639
3	179	35.830603772967	0.33531893685
3	183	36.44754342214	0.105191280833
3	187	36.556756143295	0.064463149174
3	191	37.004730391845	0.157714174828
3	195	38.140105755555	0.181855386705
3	199	38.992198004643	0.285098387976
3	205	39.240890419207	0.219300756697
3	207	39.73507733513	0.68214114749
3	211	39.908655395181	0.051022403408
3	215	42.516428684707	0.104438379291
3	219	43.338906191682	0.080654755584
3	223	44.391220993465	0.326554161031
3	227	48.479392913287	0.126645800658
3	231	49.283435181936	0.233155386406
3	235	49.600544331224	0.122212794027
3	239	50.07284113172	0.079484793241
3	243	50.830035167318	0.055187569582
3	247	51.43301337767	0.328164795996
3	251	52.072474697655	0.069091474754
3	255	52.40691907595	0.09829117835
3	259	53.69829874708	0.184362582862
3	263	56.314184693155	0.410496615455
3	269	56.821254217979	0.048550635576
3	271	57.240226671314	0.456591426166
3	275	57.611765993032	0.048049200559
3	279	58.947798017687	0.488229732611
3	283	61.55276458211	0.234325599158
3	287	63.491076568987	0.488380545401
3	293	63.87518565726	0.302422759007
3	299	64.244817447932	0.62619300854
3	301	64.264411342414	0.165829393709
3	303	64.405814822148	0.291080770926
3	307	64.64113504461	0.060098282294
3	311	67.842362960239	0.148070099647
3	315	68.109992287272	0.059363857144
3	319	68.734137044269	0.15899158665
3	323	69.715775773044	0.207131494186
3	327	71.240107786969	0.03207375051
3	333	73.557399522602	0.346236059675
3	335	73.840700246832	0.43402042544
3	339	74.205649379798	0.132694745553
3	343	75.937171078713	0.261624026462
3	347	76.29151565502	0.046970252995
3	351	78.520984535191	0.287973247585
3	361	80.729902992891	0.464648098918
3	363	80.795801923894	0.193337711095
3	365	80.955086401365	0.62041512152
3	367	81.288791589489	0.693847977221
3	371	82.438489932525	0.358163598925
3	375	83.058453902431	0.144703045487
3	379	84.478372515867	0.091595681733
3	383	84.926047479654	0.29325646651
3	387	85.048604887022	0.010053775273
3	393	86.096859045752	0.414470014162
3	395	86.099206786795	0.272615953617
3	401	86.534883819666	0.338908269652
3	403	86.66988780399	0.347239048992
3	407	87.364712190936	0.367597010219
3	413	88.451416375924	0.481094272458
3	415	88.575792945799	0.333193451745
3	419	88.985001484783	0.288078667945
3	423	90.121763307503	0.296020963229
3	427	90.515343340292	0.286125950748
3	431	92.15174506556	0.111540815327
3	435	93.33150573887	0.476374504622
3	439	94.855899442292	0.223562689265
3	443	95.967227456909	0.423204333056
3	447	96.370866278056	0.349739638739
3	453	99.244250381742	0.14871847583
3	455	99.651149291572	0.45679606777
3	459	100.558060940074	0.198252869421
4	31	7.52323296914	1
4	35	7.7149537298	1
4	37	8.110816246514	0
4	41	8.592647628543	0
4	53	10.504496836771	0
4	69	13.46875386385	0
4	77	16.374984467803	0
4	117	24.674098098433	0
4	125	25.456796661257	0
4	133	26.587091565491	0
4	145	27.233800315523	0
4	149	27.542267314849	0
4	153	28.01414135249	0
4	205	39.240890419207	0
4	269	56.821254217979	0
4	293	63.87518565726	0
4	299	64.244817447932	1
4	301	64.264411342414	0
4	333	73.557399522602	0
4	361	80.729902992891	2
4	363	80.795801923894	1
4	365	80.955086401365	0
4	393	86.096859045752	0
4	401	86.534883819666	0
4	413	88.451416375924	0
4	453	99.244250381742	0

